OPT_V10/Two_days_MCY3_MIQCPM1/powerflow_results_t46.txt
Pandapower Network Debug Info
==================================================

BUS:
       vm_pu  va_degree      p_mw    q_mvar
0   0.992643   0.114194  0.000869  0.000912
1   0.987937   0.193584  0.001543  0.002134
2   0.983681   0.266404  0.002216  0.003093
3   0.988623   0.179568  0.002889  0.003929
4   0.999884   0.000793  0.011132  0.010194
5   0.999871   0.000861  0.010104  0.007851
6   0.999860   0.000957  0.011909  0.012734
7   0.999928   0.000574  0.000000  0.000000
8   0.999928   0.000580  0.000000  0.000000
9   1.000000   0.000000 -0.040818 -0.045954
10  1.000000   0.000006  0.000000  0.000000
--------------------------------------------------

LINE:
   p_from_mw  q_from_mvar   p_to_mw  q_to_mvar         pl_mw       ql_mvar  i_from_ka   i_to_ka      i_ka  vm_from_pu  va_from_degree  vm_to_pu  va_to_degree  loading_percent
0   0.040808     0.041954 -0.040805  -0.041951  3.350554e-06  2.612482e-06   0.002253  0.002253  0.002253    1.000000        0.000006  0.999928      0.000574         0.979444
1   0.033148     0.030781 -0.033146  -0.030780  1.582549e-06  1.233940e-06   0.001741  0.001741  0.001741    0.999928        0.000574  0.999884      0.000793         0.757059
2   0.007647     0.010171 -0.007571  -0.010112  7.574528e-05  5.905984e-05   0.018368  0.018368  0.018368    0.999928        0.000580  0.992643      0.114194         7.986125
3  -0.022014    -0.020585  0.022014   0.020585  3.142138e-07  2.449976e-07   0.001160  0.001160  0.001160    0.999871        0.000861  0.999884      0.000793         0.504436
4  -0.011909    -0.012734  0.011909   0.012734  1.487116e-07  1.159529e-07   0.000671  0.000671  0.000671    0.999860        0.000957  0.999871      0.000861         0.291816
5  -0.003772    -0.005238  0.003798   0.005258  2.525911e-05  1.969494e-05   0.009431  0.009431  0.009431    0.987937        0.193584  0.992643      0.114194         4.100505
6  -0.002889    -0.003929  0.002905   0.003942  1.624915e-05  1.266973e-05   0.007120  0.007120  0.007120    0.988623        0.179568  0.992643      0.114194         3.095859
7  -0.002216    -0.003093  0.002230   0.003104  1.353548e-05  1.055383e-05   0.005583  0.005583  0.005583    0.983681        0.266404  0.987937      0.193584         2.427513
--------------------------------------------------

TRAFO:
    p_hv_mw  q_hv_mvar   p_lv_mw  q_lv_mvar    pl_mw  ql_mvar   i_hv_ka   i_lv_ka  vm_hv_pu  va_hv_degree  vm_lv_pu  va_lv_degree  loading_percent
0  0.007657   0.011171 -0.007647  -0.010171  0.00001    0.001  0.000521  0.018368  0.999928      0.000574  0.999928      0.000580         0.135440
1  0.040818   0.045954 -0.040808  -0.041954  0.00001    0.004  0.000507  0.002253  1.000000      0.000000  1.000000      0.000006         0.153662
--------------------------------------------------
